/*--------------------------------*- C++ -*----------------------------------*\
| =========                 |                                                 |
| \\      /  F ield         | OpenFOAM: The Open Source CFD Toolbox           |
|  \\    /   O peration     | Version:  2306                                  |
|   \\  /    A nd           | Website:  www.openfoam.com                      |
|    \\/     M anipulation  |                                                 |
\*---------------------------------------------------------------------------*/
FoamFile
{
    version     2.0;
    format      ascii;
    arch        "LSB;label=32;scalar=64";
    class       polyBoundaryMesh;
    location    "constant/polyMesh";
    object      boundary;
}
// * * * * * * * * * * * * * * * * * * * * * * * * * * * * * * * * * * * * * //

3
(
    oversetPatch
    {
        type            overset;
        nFaces          140;
        startFace       1818;
        faces           ( ( 0 3 2 1 ) ( 2 6 5 1 ) ( 0 4 7 3 ) ( 4 5 6 7 ) );
    }
    sidePatch1
    {
        type            empty;
        inGroups        1(empty);
        nFaces          1920;
        startFace       1958;
    }
    floatingObject
    {
        type            wall;
        inGroups        1(wall);
        nFaces          64;
        startFace       3878;
    }
)

// ************************************************************************* //
